OPT_V8/My_Campus_24/powerflow_results_t8.txt
Pandapower Network Debug Info
==================================================

BUS:
       vm_pu  va_degree      p_mw    q_mvar
0   0.992673   0.144143  0.000750  0.001008
1   0.987974   0.253109  0.001142  0.002191
2   0.983404   0.351901  0.002191  0.003560
3   0.988659   0.211419  0.002858  0.003955
4   0.990896   0.197156  0.002487  0.004178
5   0.991892   0.139868  0.003560  0.005618
6   0.990023   0.151972  0.001206  0.001178
7   0.997853   0.028205  0.001431  0.001797
8   0.997954   0.039301  0.002200  0.003276
9   0.999884   0.001512  0.009431  0.011981
10  0.999870   0.001648  0.010039  0.010715
11  0.999860   0.001759  0.010598  0.012228
12  0.999767   0.001747  0.008449  0.005394
13  0.999734   0.001936  0.013431  0.011794
14  0.999745   0.001899  0.014457  0.014034
15  0.999928   0.001003  0.000000  0.000000
16  0.999928   0.001010  0.000000  0.000000
17  0.999771   0.001771  0.000000  0.000000
18  0.999771   0.001780  0.000000  0.000000
19  1.000000   0.000000 -0.037173 -0.050749
20  1.000000   0.000007  0.000000  0.000000
21  1.000000   0.000000 -0.047358 -0.052360
22  1.000000   0.000007  0.000000  0.000000
--------------------------------------------------

LINE:
    p_from_mw  q_from_mvar   p_to_mw  q_to_mvar         pl_mw       ql_mvar  i_from_ka   i_to_ka      i_ka  vm_from_pu  va_from_degree  vm_to_pu  va_to_degree  loading_percent
0    0.037163     0.046749 -0.037160  -0.046747  3.488641e-06  2.720151e-06   0.002299  0.002299  0.002299    1.000000        0.000007  0.999928      0.001003         0.999423
1    0.047348     0.048360 -0.047336  -0.048350  1.232099e-05  9.606876e-06   0.002605  0.002605  0.002605    1.000000        0.000007  0.999771      0.001771         1.132603
2    0.030070     0.034925 -0.030069  -0.034924  1.642695e-06  1.280837e-06   0.001774  0.001774  0.001774    0.999928        0.001003  0.999884      0.001512         0.771311
3    0.008449     0.005394 -0.008449  -0.005394  3.476460e-08  2.710653e-08   0.000386  0.000386  0.000386    0.999771        0.001771  0.999767      0.001747         0.167789
4    0.027890     0.025828 -0.027889  -0.025827  7.904327e-07  6.163134e-07   0.001463  0.001463  0.001463    0.999771        0.001771  0.999745      0.001899         0.636270
5    0.007080     0.010822 -0.007001  -0.010761  7.822650e-05  6.099449e-05   0.018667  0.018667  0.018667    0.999928        0.001010  0.992673      0.144143         8.115873
6    0.004823     0.006841 -0.004769  -0.006799  5.438229e-05  4.240277e-05   0.012084  0.012084  0.012084    0.999771        0.001780  0.991892      0.139868         5.254127
7    0.001435     0.001800 -0.001431  -0.001797  3.579935e-06  2.791334e-06   0.003323  0.003323  0.003323    0.999771        0.001780  0.997853      0.028205         1.444581
8    0.004730     0.007488 -0.004716  -0.007477  1.349228e-05  1.052015e-05   0.012786  0.012786  0.012786    0.999771        0.001780  0.997954      0.039301         5.559156
9   -0.020637    -0.022943  0.020637   0.022943  3.294009e-07  2.568393e-07   0.001188  0.001188  0.001188    0.999870        0.001648  0.999884      0.001512         0.516483
10  -0.010598    -0.012228  0.010598   0.012228  1.280874e-07  9.987183e-08   0.000623  0.000623  0.000623    0.999860        0.001759  0.999870      0.001648         0.270825
11   0.013432     0.011794 -0.013431  -0.011794  1.563355e-07  1.218974e-07   0.000688  0.000688  0.000688    0.999745        0.001899  0.999734      0.001936         0.299202
12  -0.003349    -0.005764  0.003376   0.005785  2.693770e-05  2.100377e-05   0.009739  0.009739  0.009739    0.987974        0.253109  0.992673      0.144143         4.234563
13  -0.002858    -0.003955  0.002875   0.003967  1.626372e-05  1.268109e-05   0.007124  0.007124  0.007124    0.988659        0.211419  0.992673      0.144143         3.097247
14  -0.002191    -0.003560  0.002207   0.003573  1.634511e-05  1.274455e-05   0.006135  0.006135  0.006135    0.983404        0.351901  0.987974      0.253109         2.667587
15   0.002516     0.004201 -0.002487  -0.004178  2.929984e-05  2.284557e-05   0.007083  0.007083  0.007083    0.997954        0.039301  0.990896      0.197156         3.079519
16  -0.001206    -0.001178  0.001208   0.001180  2.525023e-06  1.968802e-06   0.002458  0.002458  0.002458    0.990023        0.151972  0.991892      0.139868         1.068733
--------------------------------------------------

TRAFO:
    p_hv_mw  q_hv_mvar   p_lv_mw  q_lv_mvar    pl_mw   ql_mvar   i_hv_ka   i_lv_ka  vm_hv_pu  va_hv_degree  vm_lv_pu  va_lv_degree  loading_percent
0  0.007090   0.011821 -0.007080  -0.010822  0.00001  0.001000  0.000531  0.018667  0.999928      0.001003  0.999928      0.001010         0.137853
1  0.010997   0.017128 -0.010987  -0.016129  0.00001  0.000999  0.000784  0.028175  0.999771      0.001771  0.999771      0.001780         0.203593
2  0.037173   0.050749 -0.037163  -0.046749  0.00001  0.004000  0.000519  0.002299  1.000000      0.000000  1.000000      0.000007         0.157269
3  0.047358   0.052360 -0.047348  -0.048360  0.00001  0.004000  0.000582  0.002605  1.000000      0.000000  1.000000      0.000007         0.176500
--------------------------------------------------
